Version 4
SHEET 1 2540 1332
WIRE 1008 272 592 272
WIRE 1136 272 1008 272
WIRE 1280 272 1136 272
WIRE 1488 272 1280 272
WIRE 1760 272 1488 272
WIRE 2048 272 1936 272
WIRE 592 304 592 272
WIRE 1008 336 1008 272
WIRE 1136 336 1136 272
WIRE 1280 336 1280 272
WIRE 1488 368 1488 272
WIRE 1760 368 1760 272
WIRE 592 416 592 384
WIRE 1440 432 1376 432
WIRE 1712 432 1648 432
WIRE -32 512 -80 512
WIRE 128 512 -32 512
WIRE 448 512 352 512
WIRE 1008 512 1008 400
WIRE 1136 512 1136 400
WIRE 1488 512 1488 448
WIRE 1488 512 1136 512
WIRE 1936 512 1936 272
WIRE 1936 512 1488 512
WIRE 256 528 192 528
WIRE 288 528 256 528
WIRE 128 544 32 544
WIRE 448 544 352 544
WIRE 608 544 448 544
WIRE 1280 624 1280 400
WIRE 1760 624 1760 448
WIRE 1760 624 1280 624
WIRE 1936 624 1760 624
WIRE -32 656 -80 656
WIRE 128 656 -32 656
WIRE 448 656 352 656
WIRE 480 656 448 656
WIRE 256 672 192 672
WIRE 288 672 256 672
WIRE 32 688 32 544
WIRE 128 688 32 688
WIRE 448 688 352 688
WIRE 480 688 448 688
WIRE 1488 688 1488 512
WIRE 1760 688 1760 624
WIRE 1136 704 1136 512
WIRE -544 768 -656 768
WIRE 1088 768 1008 768
WIRE -32 832 -80 832
WIRE 32 832 32 688
WIRE 32 832 -32 832
WIRE 1280 832 1280 624
WIRE 1936 848 1936 624
WIRE 2048 848 1936 848
WIRE -544 880 -656 880
WIRE 1232 896 1168 896
WIRE -544 992 -656 992
WIRE 1904 1008 1728 1008
WIRE 1728 1056 1728 1008
WIRE 512 1072 496 1072
WIRE 592 1072 512 1072
WIRE 736 1072 672 1072
WIRE 816 1072 736 1072
WIRE 832 1072 816 1072
WIRE -544 1104 -656 1104
WIRE 736 1104 736 1072
WIRE 832 1104 832 1072
WIRE 512 1232 496 1232
WIRE 736 1232 736 1168
WIRE 736 1232 512 1232
WIRE 832 1232 832 1184
WIRE 832 1232 736 1232
FLAG 256 672 vb
FLAG -32 512 refa
FLAG -32 656 refb
FLAG -32 832 sam
FLAG 448 512 vs1
FLAG 448 544 vs4
FLAG 448 656 vs3
FLAG 448 688 vs2
FLAG 592 416 0
FLAG 512 1232 n2
FLAG 816 1072 of
FLAG 256 528 va
FLAG 512 1072 n1
FLAG -656 960 0
FLAG -656 1072 0
FLAG -544 992 Vt
FLAG -544 880 B1
FLAG -656 1184 0
FLAG -544 1104 V33
FLAG -656 848 0
FLAG -544 768 B2
FLAG 1440 384 0
FLAG 1712 384 0
FLAG 1136 784 0
FLAG 1280 912 0
FLAG 1232 848 0
FLAG 1088 720 0
FLAG 2048 272 n1
FLAG 2048 848 n2
FLAG 1008 512 0
FLAG 1648 432 vs3
FLAG 1008 768 vs4
FLAG 1168 896 vs2
FLAG 1488 752 0
FLAG 1760 752 0
FLAG 1728 1136 0
FLAG 1904 1008 Vout
FLAG 1376 432 vs1
SYMBOL voltage 592 288 R0
WINDOW 123 0 0 Left 0
WINDOW 39 0 0 Left 0
SYMATTR InstName V1
SYMATTR Value {Vdc}
SYMBOL ind 576 1088 R270
WINDOW 0 32 56 VTop 2
WINDOW 3 5 56 VBottom 2
SYMATTR InstName L1
SYMATTR Value 1.6mH
SYMBOL cap 720 1104 R0
SYMATTR InstName C1
SYMATTR Value 68µF
SYMBOL res 816 1088 R0
SYMATTR InstName R2
SYMATTR Value 25
SYMBOL sinew -112 656 R0
SYMATTR InstName U2
SYMATTR Value dc=0 A={ma}
SYMATTR Value2 f={fac} phi=180
SYMBOL triangle -112 832 R0
SYMATTR InstName U3
SYMATTR Value Vlow=-1V Vhigh=1V
SYMATTR Value2 f={mf*fac}
SYMATTR SpiceLine tratio=0.5
SYMBOL comp 160 528 R0
SYMATTR InstName U4
SYMATTR Value Vhigh=1
SYMATTR Value2 Vlow=-1
SYMBOL comp 160 672 R0
SYMATTR InstName U5
SYMATTR Value Vhigh=1
SYMATTR Value2 Vlow=-1
SYMBOL ComplementaryBufferWithDeadtime 288 464 R0
SYMATTR InstName U6
SYMATTR Value Tdead=150n Va=5
SYMBOL ComplementaryBufferWithDeadtime 288 608 R0
SYMATTR InstName U7
SYMATTR Value Tdead=150n Va=5
SYMBOL sinew -112 512 R0
SYMATTR InstName U1
SYMATTR Value dc=0 A={ma}
SYMATTR Value2 f={fac} phi=0
SYMBOL bv -656 864 R0
SYMATTR InstName B1
SYMATTR Value V=if(V(Vt)>V(V33),3.3,V(VS3))
SYMBOL voltage -656 976 R0
WINDOW 123 0 0 Left 0
WINDOW 39 0 0 Left 0
SYMATTR InstName Vt1
SYMATTR Value PULSE(0 3.31 0 50m 1p 1000m 1280m)
SYMBOL voltage -656 1088 R0
WINDOW 123 0 0 Left 0
WINDOW 39 0 0 Left 0
SYMATTR InstName V2
SYMATTR Value 3.3
SYMBOL bv -656 752 R0
SYMATTR InstName B2
SYMATTR Value V=if(V(Vt)>V(V33),5,V(VS1))
SYMBOL schottky 1264 400 M180
WINDOW 0 24 64 Left 2
WINDOW 3 24 0 Left 2
SYMATTR InstName D2
SYMATTR Value MBR745
SYMATTR Description Diode
SYMATTR Type diode
SYMBOL sw 1488 352 R0
SYMATTR InstName S1
SYMATTR Value PSW2
SYMBOL sw 1760 352 R0
SYMATTR InstName S2
SYMATTR Value PSW2
SYMBOL sw 1136 688 R0
SYMATTR InstName S3
SYMATTR Value PSW2
SYMBOL sw 1280 816 R0
SYMATTR InstName S4
SYMATTR Value PSW2
SYMBOL cap 992 336 R0
SYMATTR InstName C2
SYMATTR Value 470µ
SYMBOL schottky 1120 400 M180
WINDOW 0 24 64 Left 2
WINDOW 3 24 0 Left 2
SYMATTR InstName D1
SYMATTR Value MBR745
SYMATTR Description Diode
SYMATTR Type diode
SYMBOL schottky 1472 752 M180
WINDOW 0 24 64 Left 2
WINDOW 3 24 0 Left 2
SYMATTR InstName D3
SYMATTR Value MBR745
SYMATTR Description Diode
SYMATTR Type diode
SYMBOL schottky 1744 752 M180
WINDOW 0 24 64 Left 2
WINDOW 3 24 0 Left 2
SYMATTR InstName D4
SYMATTR Value MBR745
SYMATTR Description Diode
SYMATTR Type diode
SYMBOL bv 1728 1040 R0
SYMATTR InstName B3
SYMATTR Value V=V(of)-V(n2)
TEXT -152 1032 Left 2 !.param ma=0.96
TEXT -152 1080 Left 2 !.tran 0 {mf/12/fac} {1/(2*fac)}
TEXT -152 1008 Left 2 !.param fac=50Hz
TEXT -152 1056 Left 2 !.param mf=72
TEXT -152 960 Left 2 !.model PSW2 SW(Ron=100m Roff=1Meg Vt=2.5)
TEXT -152 984 Left 2 !.param Vdc=100V
TEXT 504 1008 Left 2 ;AC Low Pass filter
TEXT -152 1104 Left 2 !.four {fac} 25 -1 V(of)
